# family_boco file written by ICEM CFD by skilkis on Wed Nov 07 17:56:07 W. Europe Standard Time 2018
## solver ANSYS CFX
"AIRFOIL"
"AIRFOIL" "color" 39321
"DOMAIN"
"BLOCKING"
"POINTS_MESH"
"INLET"
"INLET" "color" 16663100
"WALL"
"WALL" "color" 3604040
"OUTLET"
"OUTLET" "color" 3387850
"SYMMETRY"
"SYMMETRY" "color" 10171400
"SOLID"
"SOLID" "color" 39168
